Metadata-Version: 2.0
Name: imod
Version: 0.1
Summary: Work with iMOD MODFLOW models
Home-page: https://gitlab.com/visr/imod-python
Author: Martijn Visser
Author-email: mgvisser@gmail.com
License: MIT
Description-Content-Type: UNKNOWN
Requires-Dist: numpy
Requires-Dist: xarray
Requires-Dist: pandas
Requires-Dist: dask
Requires-Dist: rasterio

Work with `iMOD <http://oss.deltares.nl/web/imod>`__ MODFLOW models in


